Version 4
SHEET 1 880 680
WIRE 240 96 32 96
WIRE 336 96 240 96
WIRE 432 96 336 96
WIRE 32 160 32 96
WIRE 240 160 240 96
WIRE 336 160 336 96
WIRE 432 160 432 96
WIRE 32 272 32 240
WIRE 240 272 240 224
WIRE 240 272 32 272
WIRE 336 272 336 224
WIRE 336 272 240 272
WIRE 432 272 432 224
WIRE 432 272 336 272
WIRE 32 304 32 272
FLAG 32 304 0
SYMBOL current 32 240 R180
WINDOW 3 24 28 Left 2
WINDOW 123 0 0 Left 2
WINDOW 39 0 0 Left 2
SYMATTR InstName I1
SYMATTR Value 0.1
SYMBOL LED 224 160 R0
SYMATTR InstName D1
SYMBOL LED 320 160 R0
SYMATTR InstName D2
SYMBOL LED 416 160 R0
SYMATTR InstName D3
TEXT -2 328 Left 2 !.dc I1 0 0.3 0.002
